/*--------------------------------*- C++ -*----------------------------------*\
  =========                 |
  \\      /  F ield         | OpenFOAM: The Open Source CFD Toolbox
   \\    /   O peration     | Website:  https://openfoam.org
    \\  /    A nd           | Version:  6.0
     \\/     M anipulation  |
\*---------------------------------------------------------------------------*/
FoamFile
{
    version     2.0;
    format      ascii;
    class       polyBoundaryMesh;
    location    "constant/polyMesh";
    object      boundary;
}
// * * * * * * * * * * * * * * * * * * * * * * * * * * * * * * * * * * * * * //

6
(
    inlet
    {
        type            patch;
        nFaces          800;
        startFace       69200;
    }
    outlet
    {
        type            patch;
        nFaces          400;
        startFace       70000;
    }
    top
    {
        type            symmetryPlane;
        inGroups        1(symmetryPlane);
        nFaces          800;
        startFace       70400;
    }
    bottom
    {
        type            symmetryPlane;
        inGroups        1(symmetryPlane);
        nFaces          400;
        startFace       71200;
    }
    step
    {
        type            wall;
        inGroups        1(wall);
        nFaces          800;
        startFace       71600;
    }
    defaultFaces
    {
        type            empty;
        inGroups        1(empty);
        nFaces          2400;
        startFace       72400;
    }
)

// ************************************************************************* //
