/*--------------------------------*- C++ -*----------------------------------*\
  =========                 |
  \\      /  F ield         | OpenFOAM: The Open Source CFD Toolbox
   \\    /   O peration     | Website:  https://openfoam.org
    \\  /    A nd           | Version:  6.0
     \\/     M anipulation  |
\*---------------------------------------------------------------------------*/
FoamFile
{
    version     2.0;
    format      ascii;
    class       polyBoundaryMesh;
    location    "constant/polyMesh";
    object      boundary;
}
// * * * * * * * * * * * * * * * * * * * * * * * * * * * * * * * * * * * * * //

6
(
    inlet
    {
        type            patch;
        nFaces          80;
        startFace       9440;
    }
    outlet
    {
        type            patch;
        nFaces          40;
        startFace       9520;
    }
    top
    {
        type            symmetryPlane;
        inGroups        1(symmetryPlane);
        nFaces          80;
        startFace       9560;
    }
    bottom
    {
        type            symmetryPlane;
        inGroups        1(symmetryPlane);
        nFaces          40;
        startFace       9640;
    }
    step
    {
        type            wall;
        inGroups        1(wall);
        nFaces          80;
        startFace       9680;
    }
    defaultFaces
    {
        type            empty;
        inGroups        1(empty);
        nFaces          9600;
        startFace       9760;
    }
)

// ************************************************************************* //
